/*--------------------------------*- C++ -*----------------------------------*\
| =========                 |                                                 |
| \\      /  F ield         | OpenFOAM: The Open Source CFD Toolbox           |
|  \\    /   O peration     | Version:  3.0.x                                 |
|   \\  /    A nd           | Web:      www.OpenFOAM.org                      |
|    \\/     M anipulation  |                                                 |
\*---------------------------------------------------------------------------*/
FoamFile
{
    version     2.0;
    format      ascii;
    class       dictionary;
    location    "constant";
    object      thermodynamicProperties;
}
// * * * * * * * * * * * * * * * * * * * * * * * * * * * * * * * * * * * * * //

barotropicCompressibilityModel linear;

psiv            [0 -2 2 0 0] 5.9e-05;

//psig            [0 -2 2 0 0] 1.2e-05;

rholSat         [1 -3 0 0 0] 800;

psil            [0 -2 2 0 0] 7.5e-07;

He              [0 -2 2 0 0] 2.0e-06;

pSat            [1 -1 -2 0 0] 10000;

pSol            [1 -1 -2 0 0] 100000;

K		[-1 1 2 0 0] 1.0e-04;

rhoMin          [1 -3 0 0 0] 1.0e-10;

He		[0 -2 2 0 0] 2.0e-06;

tFlow		[0 0 1 0 0] 1.0e-05;

tDiff		[0 0 1 0 0] 1.0e-02;

RbyM_v		[0 2 -2 -1 0] 48;

RbyM_g		[0 2 -2 -1 0] 286.5;

//delta_p	[1 -1 -2 0 0] 1.0e07;

//D		[0 2 -1 0 0] 2e-09;

//R		[1 2 -2 -1 -1] 8.31;

T0		[0 0 0 1 0] 353;

// ************************************************************************* //
