/*--------------------------------*- C++ -*----------------------------------*\
| =========                 |                                                 |
| \\      /  F ield         | OpenFOAM: The Open Source CFD Toolbox           |
|  \\    /   O peration     | Version:  3.0.x                                 |
|   \\  /    A nd           | Web:      www.OpenFOAM.org                      |
|    \\/     M anipulation  |                                                 |
\*---------------------------------------------------------------------------*/
FoamFile
{
    version     2.0;
    format      ascii;
    class       dictionary;
    location    "constant";
    object      transportProperties;
}
// * * * * * * * * * * * * * * * * * * * * * * * * * * * * * * * * * * * * * //

mul             [1 -1 -1 0 0] 2.0e-03;

muv             [1 -1 -1 0 0] 1.0e-05;

phases (vapour water);

water
{
    transportModel  Newtonian;
    nu              [0 2 -1 0 0 0 0] 2.5e-06;
    rho             [1 -3 0 0 0 0 0] 800;
}

vapour
{
    transportModel  Newtonian;
    nu              [0 2 -1 0 0 0 0] 1.667e-05;
    rho             [1 -3 0 0 0 0 0] 0.6;
}

// ************************************************************************* //
